<routes>


    <!--first part-->


    <flow id="flow_11b" from="-h11" to="-h22" begin="00000" end="300000" probability="0.03" departSpeed="max" departPos="base" departLane="best"/>
    <flow id="flow_12b" from="-h11" to="-h12" begin="0000" end="300000" probability="0.02" departSpeed="max" departPos="base" departLane="best"/>

    <flow id="flow_21b" from="-h21" to="v11" begin="00000" end="300000" probability="0.03" departSpeed="max" departPos="base" departLane="best"/>
    <flow id="flow_22b" from="-h21" to="-v13" begin="00000" end="600000" probability="0.02" departSpeed="max" departPos="base" departLane="best"/>

    <flow id="flow_32b" from="v13" to="-h12" begin="00000" end="300000" probability="0.03" departSpeed="max" departPos="base" departLane="best"/>
    <flow id="flow_33b" from="v13" to="h21" begin="00000" end="300000" probability="0.02" departSpeed="max" departPos="base" departLane="best"/>

    <flow id="flow_41b" from="h22" to="h11" begin="00000" end="300000" probability="0.03" departSpeed="max" departPos="base" departLane="best"/>
    <flow id="flow_42b" from="h22" to="h21" begin="00000" end="300000" probability="0.02" departSpeed="max" departPos="base" departLane="best"/>

    <flow id="flow_51b" from="h12" to="-v13" begin="00000" end="300000" probability="0.03" departSpeed="max" departPos="base" departLane="best"/>
    <flow id="flow_52b" from="h12" to="v11" begin="00000" end="300000" probability="0.02" departSpeed="max" departPos="base" departLane="best"/>

    <flow id="flow_61b" from="-v11" to="h21" begin="00000" end="300000" probability="0.03" departSpeed="max" departPos="base" departLane="best"/>
    <flow id="flow_62b" from="-v11" to="h11" begin="00000" end="300000" probability="0.02" departSpeed="max" departPos="base" departLane="best"/>




    <!-- second part-->

    <flow id="flow_11c" from="-h11" to="h21" begin="300000" end="600000" probability="0.01" departSpeed="max" departPos="base" departLane="best"/>
    <flow id="flow_12c" from="-h11" to="-v13" begin="300000" end="600000" probability="0.01" departSpeed="max" departPos="base" departLane="best"/>
    <flow id="flow_13c" from="-h11" to="-h22" begin="300000" end="600000" probability="0.01" departSpeed="max" departPos="base" departLane="best"/>
    <flow id="flow_14c" from="-h11" to="-h12" begin="300000" end="600000" probability="0.01" departSpeed="max" departPos="base" departLane="best"/>
    <flow id="flow_15c" from="-h11" to="v11" begin="300000" end="600000" probability="0.01" departSpeed="max" departPos="base" departLane="best"/>

    <flow id="flow_2c1" from="-h21" to="h11" begin="300000" end="600000" probability="0.01" departSpeed="max" departPos="base" departLane="best"/>
    <flow id="flow_22c" from="-h21" to="-v13" begin="300000" end="600000" probability="0.01" departSpeed="max" departPos="base" departLane="best"/>
    <flow id="flow_23c" from="-h21" to="-h22" begin="300000" end="600000" probability="0.01" departSpeed="max" departPos="base" departLane="best"/>
    <flow id="flow_24c" from="-h21" to="-h12" begin="300000" end="600000" probability="0.01" departSpeed="max" departPos="base" departLane="best"/>
    <flow id="flow_25c" from="-h21" to="v11" begin="300000" end="600000" probability="0.01" departSpeed="max" departPos="base" departLane="best"/>

    <flow id="flow_31c" from="h12" to="h21" begin="300000" end="600000" probability="0.01" departSpeed="max" departPos="base" departLane="best"/>
    <flow id="flow_33c" from="h12" to="-h22" begin="300000" end="600000" probability="0.01" departSpeed="max" departPos="base" departLane="best"/>
    <flow id="flow_34c" from="h12" to="h11" begin="300000" end="600000" probability="0.01" departSpeed="max" departPos="base" departLane="best"/>
    <flow id="flow_35c" from="h12" to="v11" begin="300000" end="600000" probability="0.01" departSpeed="max" departPos="base" departLane="best"/>

    <flow id="flow_41c" from="h22" to="h21" begin="300000" end="600000" probability="0.01" departSpeed="max" departPos="base" departLane="best"/>
    <flow id="flow_42c" from="h22" to="-v13" begin="300000" end="600000" probability="0.01" departSpeed="max" departPos="base" departLane="best"/>
    <flow id="flow_43c" from="h22" to="h11" begin="300000" end="600000" probability="0.01" departSpeed="max" departPos="base" departLane="best"/>
    <flow id="flow_44c" from="h22" to="-h12" begin="300000" end="600000" probability="0.01" departSpeed="max" departPos="base" departLane="best"/>
    <flow id="flow_45c" from="h22" to="v11" begin="300000" end="600000" probability="0.01" departSpeed="max" departPos="base" departLane="best"/>

    <flow id="flow_51c" from="-v11" to="h21" begin="300000" end="600000" probability="0.01" departSpeed="max" departPos="base" departLane="best"/>
    <flow id="flow_52c" from="-v11" to="-v13" begin="300000" end="600000" probability="0.01" departSpeed="max" departPos="base" departLane="best"/>
    <flow id="flow_53c" from="-v11" to="-h22" begin="300000" end="600000" probability="0.01" departSpeed="max" departPos="base" departLane="best"/>
    <flow id="flow_54c" from="-v11" to="-h12" begin="300000" end="600000" probability="0.01" departSpeed="max" departPos="base" departLane="best"/>
    <flow id="flow_55c" from="-v11" to="h11" begin="300000" end="600000" probability="0.01" departSpeed="max" departPos="base" departLane="best"/>

    <flow id="flow_61c" from="v13" to="h21" begin="300000" end="600000" probability="0.01" departSpeed="max" departPos="base" departLane="best"/>
    <flow id="flow_62c" from="v13" to="h11" begin="300000" end="600000" probability="0.01" departSpeed="max" departPos="base" departLane="best"/>
    <flow id="flow_63c" from="v13" to="-h22" begin="300000" end="600000" probability="0.01" departSpeed="max" departPos="base" departLane="best"/>
    <flow id="flow_64c" from="v13" to="-h12" begin="300000" end="600000" probability="0.01" departSpeed="max" departPos="base" departLane="best"/>
    <flow id="flow_65c" from="v13" to="v11" begin="300000" end="600000" probability="0.01" departSpeed="max" departPos="base" departLane="best"/>

    <!--third part-->

    <flow id="flow_11d" from="-h11" to="-h22" begin="600000" end="800000" probability="0.03" departSpeed="max" departPos="base" departLane="best"/>
    <flow id="flow_12d" from="-h11" to="-h12" begin="600000" end="800000" probability="0.02" departSpeed="max" departPos="base" departLane="best"/>

    <flow id="flow_21d" from="-h21" to="v11" begin="600000" end="800000" probability="0.03" departSpeed="max" departPos="base" departLane="best"/>
    <flow id="flow_22d" from="-h21" to="-v13" begin="600000" end="800000" probability="0.02" departSpeed="max" departPos="base" departLane="best"/>

    <flow id="flow_32d" from="v13" to="-h12" begin="600000" end="800000" probability="0.03" departSpeed="max" departPos="base" departLane="best"/>
    <flow id="flow_33d" from="v13" to="h21" begin="600000" end="800000" probability="0.02" departSpeed="max" departPos="base" departLane="best"/>

    <flow id="flow_41d" from="h22" to="h11" begin="600000" end="800000" probability="0.03" departSpeed="max" departPos="base" departLane="best"/>
    <flow id="flow_42d" from="h22" to="h21" begin="600000" end="800000" probability="0.02" departSpeed="max" departPos="base" departLane="best"/>

    <flow id="flow_51d" from="h12" to="-v13" begin="600000" end="800000" probability="0.03" departSpeed="max" departPos="base" departLane="best"/>
    <flow id="flow_52d" from="h12" to="v11" begin="600000" end="800000" probability="0.02" departSpeed="max" departPos="base" departLane="best"/>

    <flow id="flow_61d" from="-v11" to="h21" begin="600000" end="800000" probability="0.03" departSpeed="max" departPos="base" departLane="best"/>
    <flow id="flow_62d" from="-v11" to="h11" begin="600000" end="800000" probability="0.02" departSpeed="max" departPos="base" departLane="best"/>








</routes>
