<routes>

    <flow id="flow_11" from="-h11" to="h21" begin="0" end="300000" probability="0.01" departSpeed="max" departPos="base" departLane="best"/>
    <flow id="flow_12" from="-h11" to="-v13" begin="0" end="300000" probability="0.01" departSpeed="max" departPos="base" departLane="best"/>
    <flow id="flow_13" from="-h11" to="-h22" begin="0" end="300000" probability="0.01" departSpeed="max" departPos="base" departLane="best"/>
    <flow id="flow_14" from="-h11" to="-h12" begin="0" end="300000" probability="0.01" departSpeed="max" departPos="base" departLane="best"/>
    <flow id="flow_15" from="-h11" to="v11" begin="0" end="300000" probability="0.01" departSpeed="max" departPos="base" departLane="best"/>

    <flow id="flow_21" from="-h21" to="h11" begin="0" end="300000" probability="0.01" departSpeed="max" departPos="base" departLane="best"/>
    <flow id="flow_22" from="-h21" to="-v13" begin="0" end="300000" probability="0.01" departSpeed="max" departPos="base" departLane="best"/>
    <flow id="flow_23" from="-h21" to="-h22" begin="0" end="300000" probability="0.01" departSpeed="max" departPos="base" departLane="best"/>
    <flow id="flow_24" from="-h21" to="-h12" begin="0" end="300000" probability="0.01" departSpeed="max" departPos="base" departLane="best"/>
    <flow id="flow_25" from="-h21" to="v11" begin="0" end="300000" probability="0.01" departSpeed="max" departPos="base" departLane="best"/>

    <flow id="flow_31" from="h12" to="h21" begin="0" end="300000" probability="0.01" departSpeed="max" departPos="base" departLane="best"/>
    <flow id="flow_32" from="h12" to="-v13" begin="0" end="300000" probability="0.01" departSpeed="max" departPos="base" departLane="best"/>
    <flow id="flow_33" from="h12" to="-h22" begin="0" end="300000" probability="0.01" departSpeed="max" departPos="base" departLane="best"/>
    <flow id="flow_34" from="h12" to="h11" begin="0" end="300000" probability="0.01" departSpeed="max" departPos="base" departLane="best"/>
    <flow id="flow_35" from="h12" to="v11" begin="0" end="300000" probability="0.01" departSpeed="max" departPos="base" departLane="best"/>

    <flow id="flow_41" from="h22" to="h21" begin="0" end="300000" probability="0.01" departSpeed="max" departPos="base" departLane="best"/>
    <flow id="flow_42" from="h22" to="-v13" begin="0" end="300000" probability="0.01" departSpeed="max" departPos="base" departLane="best"/>
    <flow id="flow_43" from="h22" to="h11" begin="0" end="300000" probability="0.01" departSpeed="max" departPos="base" departLane="best"/>
    <flow id="flow_44" from="h22" to="-h12" begin="0" end="300000" probability="0.01" departSpeed="max" departPos="base" departLane="best"/>
    <flow id="flow_45" from="h22" to="v11" begin="0" end="300000" probability="0.01" departSpeed="max" departPos="base" departLane="best"/>

    <flow id="flow_51" from="-v11" to="h21" begin="0" end="300000" probability="0.01" departSpeed="max" departPos="base" departLane="best"/>
    <flow id="flow_52" from="-v11" to="-v13" begin="0" end="300000" probability="0.01" departSpeed="max" departPos="base" departLane="best"/>
    <flow id="flow_53" from="-v11" to="-h22" begin="0" end="300000" probability="0.01" departSpeed="max" departPos="base" departLane="best"/>
    <flow id="flow_54" from="-v11" to="-h12" begin="0" end="300000" probability="0.01" departSpeed="max" departPos="base" departLane="best"/>
    <flow id="flow_55" from="-v11" to="h11" begin="0" end="300000" probability="0.01" departSpeed="max" departPos="base" departLane="best"/>

    <flow id="flow_61" from="v13" to="h21" begin="0" end="300000" probability="0.01" departSpeed="max" departPos="base" departLane="best"/>
    <flow id="flow_62" from="v13" to="h11" begin="0" end="300000" probability="0.01" departSpeed="max" departPos="base" departLane="best"/>
    <flow id="flow_63" from="v13" to="-h22" begin="0" end="300000" probability="0.01" departSpeed="max" departPos="base" departLane="best"/>
    <flow id="flow_64" from="v13" to="-h12" begin="0" end="300000" probability="0.01" departSpeed="max" departPos="base" departLane="best"/>
    <flow id="flow_65" from="v13" to="v11" begin="0" end="300000" probability="0.01" departSpeed="max" departPos="base" departLane="best"/>



    <!--second part-->


    <flow id="flow_11b" from="-h11" to="-h22" begin="300000" end="600000" probability="0.03" departSpeed="max" departPos="base" departLane="best"/>
    <flow id="flow_12b" from="-h11" to="-h12" begin="300000" end="600000" probability="0.02" departSpeed="max" departPos="base" departLane="best"/>

    <flow id="flow_21b" from="-h21" to="v11" begin="300000" end="600000" probability="0.03" departSpeed="max" departPos="base" departLane="best"/>
    <flow id="flow_22b" from="-h21" to="-v13" begin="300000" end="600000" probability="0.02" departSpeed="max" departPos="base" departLane="best"/>

    <flow id="flow_32b" from="v13" to="-h12" begin="300000" end="600000" probability="0.03" departSpeed="max" departPos="base" departLane="best"/>
    <flow id="flow_33b" from="v13" to="h21" begin="300000" end="600000" probability="0.02" departSpeed="max" departPos="base" departLane="best"/>

    <flow id="flow_41b" from="h22" to="h11" begin="300000" end="600000" probability="0.03" departSpeed="max" departPos="base" departLane="best"/>
    <flow id="flow_42b" from="h22" to="h21" begin="300000" end="600000" probability="0.02" departSpeed="max" departPos="base" departLane="best"/>

    <flow id="flow_51b" from="h12" to="-v13" begin="300000" end="600000" probability="0.03" departSpeed="max" departPos="base" departLane="best"/>
    <flow id="flow_52b" from="h12" to="v11" begin="300000" end="600000" probability="0.02" departSpeed="max" departPos="base" departLane="best"/>

    <flow id="flow_61b" from="-v11" to="h21" begin="300000" end="600000" probability="0.03" departSpeed="max" departPos="base" departLane="best"/>
    <flow id="flow_62b" from="-v11" to="h11" begin="300000" end="600000" probability="0.02" departSpeed="max" departPos="base" departLane="best"/>


    <!-- third part-->

    <flow id="flow_11c" from="-h11" to="h21" begin="600000" end="1000000" probability="0.01" departSpeed="max" departPos="base" departLane="best"/>
    <flow id="flow_12c" from="-h11" to="-v13" begin="600000" end="1000000" probability="0.01" departSpeed="max" departPos="base" departLane="best"/>
    <flow id="flow_13c" from="-h11" to="-h22" begin="600000" end="1000000" probability="0.01" departSpeed="max" departPos="base" departLane="best"/>
    <flow id="flow_14c" from="-h11" to="-h12" begin="600000" end="1000000" probability="0.01" departSpeed="max" departPos="base" departLane="best"/>
    <flow id="flow_15c" from="-h11" to="v11" begin="600000" end="1000000" probability="0.01" departSpeed="max" departPos="base" departLane="best"/>

    <flow id="flow_2c1" from="-h21" to="h11" begin="600000" end="1000000" probability="0.01" departSpeed="max" departPos="base" departLane="best"/>
    <flow id="flow_22c" from="-h21" to="-v13" begin="600000" end="1000000" probability="0.01" departSpeed="max" departPos="base" departLane="best"/>
    <flow id="flow_23c" from="-h21" to="-h22" begin="600000" end="1000000" probability="0.01" departSpeed="max" departPos="base" departLane="best"/>
    <flow id="flow_24c" from="-h21" to="-h12" begin="600000" end="1000000" probability="0.01" departSpeed="max" departPos="base" departLane="best"/>
    <flow id="flow_25c" from="-h21" to="v11" begin="600000" end="1000000" probability="0.01" departSpeed="max" departPos="base" departLane="best"/>

    <flow id="flow_31c" from="h12" to="h21" begin="600000" end="1000000" probability="0.01" departSpeed="max" departPos="base" departLane="best"/>
    <flow id="flow_32c" from="h12" to="-v13" begin="600000" end="1000000" probability="0.01" departSpeed="max" departPos="base" departLane="best"/>
    <flow id="flow_33c" from="h12" to="-h22" begin="600000" end="1000000" probability="0.01" departSpeed="max" departPos="base" departLane="best"/>
    <flow id="flow_34c" from="h12" to="h11" begin="600000" end="1000000" probability="0.01" departSpeed="max" departPos="base" departLane="best"/>
    <flow id="flow_35c" from="h12" to="v11" begin="600000" end="1000000" probability="0.01" departSpeed="max" departPos="base" departLane="best"/>

    <flow id="flow_41c" from="h22" to="h21" begin="600000" end="1000000" probability="0.01" departSpeed="max" departPos="base" departLane="best"/>
    <flow id="flow_42c" from="h22" to="-v13" begin="600000" end="1000000" probability="0.01" departSpeed="max" departPos="base" departLane="best"/>
    <flow id="flow_43c" from="h22" to="h11" begin="600000" end="1000000" probability="0.01" departSpeed="max" departPos="base" departLane="best"/>
    <flow id="flow_44c" from="h22" to="-h12" begin="600000" end="1000000" probability="0.01" departSpeed="max" departPos="base" departLane="best"/>
    <flow id="flow_45c" from="h22" to="v11" begin="600000" end="1000000" probability="0.01" departSpeed="max" departPos="base" departLane="best"/>

    <flow id="flow_51c" from="-v11" to="h21" begin="600000" end="1000000" probability="0.01" departSpeed="max" departPos="base" departLane="best"/>
    <flow id="flow_52c" from="-v11" to="-v13" begin="600000" end="1000000" probability="0.01" departSpeed="max" departPos="base" departLane="best"/>
    <flow id="flow_53c" from="-v11" to="-h22" begin="600000" end="1000000" probability="0.01" departSpeed="max" departPos="base" departLane="best"/>
    <flow id="flow_54c" from="-v11" to="-h12" begin="600000" end="1000000" probability="0.01" departSpeed="max" departPos="base" departLane="best"/>
    <flow id="flow_55c" from="-v11" to="h11" begin="600000" end="1000000" probability="0.01" departSpeed="max" departPos="base" departLane="best"/>

    <flow id="flow_61c" from="v13" to="h21" begin="600000" end="1000000" probability="0.01" departSpeed="max" departPos="base" departLane="best"/>
    <flow id="flow_62c" from="v13" to="h11" begin="600000" end="1000000" probability="0.01" departSpeed="max" departPos="base" departLane="best"/>
    <flow id="flow_63c" from="v13" to="-h22" begin="600000" end="1000000" probability="0.01" departSpeed="max" departPos="base" departLane="best"/>
    <flow id="flow_64c" from="v13" to="-h12" begin="600000" end="1000000" probability="0.01" departSpeed="max" departPos="base" departLane="best"/>
    <flow id="flow_65c" from="v13" to="v11" begin="600000" end="1000000" probability="0.01" departSpeed="max" departPos="base" departLane="best"/>


    <!--

    <flow id="flow_11b" from="-h11" to="v11" begin="300000" end="600000" probability="0.05" departSpeed="max" departPos="base" departLane="best"/>


    <flow id="flow_21b" from="-h21" to="-v13" begin="300000" end="600000" probability="0.05" departSpeed="max" departPos="base" departLane="best"/>
    <flow id="flow_32b" from="v13" to="h11" begin="300000" end="600000" probability="0.05" departSpeed="max" departPos="base" departLane="best"/>

    <flow id="flow_41b" from="h22" to="h21" begin="300000" end="600000" probability="0.05" departSpeed="max" departPos="base" departLane="best"/>


    <flow id="flow_52b" from="h12" to="-h22" begin="300000" end="600000" probability="0.05" departSpeed="max" departPos="base" departLane="best"/>


    <flow id="flow_62b" from="-v11" to="-v13" begin="300000" end="600000" probability="0.05" departSpeed="max" departPos="base" departLane="best"/>




    <flow id="flow_12c" from="-h11" to="-v13" begin="600000" end="800000" probability="0.05" departSpeed="max" departPos="base" departLane="best"/>

    <flow id="flow_21c" from="-h21" to="v11" begin="600000" end="800000" probability="0.05" departSpeed="max" departPos="base" departLane="best"/>
    <flow id="flow_32c" from="v13" to="-h22" begin="600000" end="800000" probability="0.05" departSpeed="max" departPos="base" departLane="best"/>

    <flow id="flow_41c" from="h22" to="h11" begin="600000" end="800000" probability="0.05" departSpeed="max" departPos="base" departLane="best"/>


    <flow id="flow_52c" from="h12" to="-v13" begin="600000" end="800000" probability="0.05" departSpeed="max" departPos="base" departLane="best"/>

    <flow id="flow_62c" from="-v11" to="h21" begin="600000" end="800000" probability="0.05" departSpeed="max" departPos="base" departLane="best"/>

    -->

</routes>
